data/crac-creation/crac-creator-cse/src/test/resources/networks/TestCase16NodesWithUcteHvdc.uct
##C 2007.05.01
Generated by powsybl, 2022-01-04T11:40:45.791+01:00
Case date: 2021-08-27T17:22:10.856+02:00
##N
##ZBE
BBE1AA11 BE1          0 2 400.00 2500.00 0.00000 -1500.0 0.00000 9000.00 -9000.0 9000.00 -9000.0
BBE2AA11 BE2          0 2 400.00 1000.00 0.00000 -3000.0 0.00000 9000.00 -9000.0 9000.00 -9000.0
BBE2AA12 BE2_HVDC     0 2 400.00 0000.00 0.00000 0000.00 0.00000 1000.00 -1000.0 1000.00 -1000.0
BBE3AA11 BE3          0 2 400.00 1500.00 0.00000 -2500.0 0.00000 9000.00 -9000.0 9000.00 -9000.0
BBE4AA11 BE4          0 2 400.00 2000.00 0.00000 -2500.0 0.00000 9000.00 -9000.0 9000.00 -9000.0
##ZDE
DDE1AA11 DE1          0 2 400.00 3500.00 0.00000 -2500.0 0.00000 9000.00 -9000.0 9000.00 -9000.0
DDE2AA11 DE2          0 2 400.00 3000.00 0.00000 -2000.0 0.00000 9000.00 -9000.0 9000.00 -9000.0
DDE3AA11 DE3          0 2 400.00 2000.00 0.00000 -1500.0 0.00000 9000.00 -9000.0 9000.00 -9000.0
DDE4AA11 DE3          0 2 400.00 1000.00 0.00000 -1500.0 0.00000 9000.00 -9000.0 9000.00 -9000.0
##ZFR
FFR1AA11 FR1          0 2 400.00 1000.00 0.00000 -2000.0 0.00000 9000.00 -9000.0 9000.00 -9000.0
FFR2AA11 FR2          0 2 400.00 3500.00 0.00000 -2000.0 0.00000 9000.00 -9000.0 9000.00 -9000.0
FFR3AA11 FR3          0 2 400.00 1500.00 0.00000 -3000.0 0.00000 9000.00 -9000.0 9000.00 -9000.0
FFR3AA12 FR3_HVDC     0 2 400.00 0000.00 0.00000 0000.00 0.00000 1000.00 -1000.0 1000.00 -1000.0
FFR4AA11 FR4          0 2 400.00 2000.00 0.00000 -1000.0 0.00000 9000.00 -9000.0 9000.00 -9000.0
FFR5AA11 FR5          0 2 400.00 1500.00 0.00000 -1500.0 0.00000 9000.00 -9000.0 9000.00 -9000.0
##ZNL
NNL1AA11 NL1          0 2 400.00 1000.00 0.00000 -1500.0 0.00000 9000.00 -9000.0 9000.00 -9000.0
NNL2AA11 NL2          0 2 400.00 1000.00 0.00000 -500.00 0.00000 9000.00 -9000.0 9000.00 -9000.0
NNL3AA11 NL3          0 2 400.00 2500.00 0.00000 -2000.0 0.00000 9000.00 -9000.0 9000.00 -9000.0
##L
BBE1AA11 BBE2AA11 1 0 0.0000 10.000 0.000000   2000
BBE1AA11 BBE3AA11 1 0 0.0000 10.000 0.000000   2000
BBE1AA11 BBE3AA11 2 0 0.0000 10.000 0.000000   2000
BBE1AA11 BBE4AA11 1 2 0.0000 0.0000 0.000000   2000
BBE1AA11 FFR5AA11 1 0 0.0000 10.000 0.000000   2000
BBE2AA11 BBE2AA12 1 0 0.0000 0.0500 0.000000   9999
BBE3AA11 BBE4AA11 1 0 0.0000 10.000 0.000000   2000
BBE4AA11 FFR5AA11 1 0 0.0000 10.000 0.000000   2000
DDE1AA11 DDE2AA11 1 0 0.0000 10.000 0.000000   2000
DDE1AA11 DDE4AA11 1 0 0.0000 10.000 0.000000   2000
DDE2AA11 DDE3AA11 1 0 0.0000 10.000 0.000000   2000
DDE2AA11 NNL3AA11 1 0 0.0000 10.000 0.000000   2000
DDE3AA11 DDE4AA11 1 7 0.0000 0.0000 0.000000   2000
FFR1AA11 FFR2AA11 1 0 0.0000 10.000 0.000000   2000
FFR1AA11 FFR3AA11 1 0 0.0000 10.000 0.000000   2000
FFR1AA11 FFR4AA11 1 0 0.0000 10.000 0.000000   2000
FFR1AA11 FFR5AA11 1 8 0.0000 10.000 0.000000   2000
FFR2AA11 DDE3AA11 1 0 0.0000 10.000 0.000000   2000
FFR2AA11 FFR3AA11 1 0 0.0000 10.000 0.000000   2000
FFR2AA11 FFR3AA11 2 0 0.0000 10.000 0.000000   2000
FFR3AA11 FFR5AA11 1 0 0.0000 10.000 0.000000   2000
FFR3AA11 FFR3AA12 1 0 0.0000 0.0500 0.000000   9999
FFR4AA11 DDE1AA11 1 0 0.0000 10.000 0.000000   2000
FFR4AA11 DDE4AA11 1 0 0.0000 10.000 0.000000   2000
NNL1AA11 NNL2AA11 1 0 0.0000 10.000 0.000000   2000
NNL1AA11 NNL3AA11 1 0 0.0000 10.000 0.000000   2000
NNL2AA11 BBE3AA11 1 0 0.0000 10.000 0.000000   2000
NNL2AA11 NNL3AA11 1 0 0.0000 10.000 0.000000   2000
BBE2AA12 FFR3AA12 1 8 0.0000 57.000 0.000000   9999

##T
BBE2AA11 BBE3AA11 1 0 400.0 400.0 1000. 0.0000 10.000 0.000000 0.0000   2000 PST
FFR2AA11 FFR4AA11 1 0 400.0 400.0 1000. 0.0000 10.000 0.000000 0.0000   2000 PST
##R
BBE2AA11 BBE3AA11 1                    0.680 90.00 16   0       SYMM
FFR2AA11 FFR4AA11 1                    0.680 90.00 16   5       SYMM
